FoamFile
{
    version     2.0;
    format      ascii;
    class       dictionary;
    location    "system";
    object      decomposeParDict;
}

// decomposeParDict created at Thu Oct 12 14:04:32 MDT 2023.

numberOfSubdomains 192;

method          scotch;

