/*--------------------------------*- C++ -*----------------------------------*\
| =========                 |                                                 |
| \\      /  F ield         | OpenFOAM: The Open Source CFD Toolbox           |
|  \\    /   O peration     | Version:  2.3.0                                 |
|   \\  /    A nd           | Web:      www.OpenFOAM.org                      |
|    \\/     M anipulation  |                                                 |
\*---------------------------------------------------------------------------*/
FoamFile
{
    version     2.0;
    format      ascii;
    class       dictionary;
    location    "system";
    object      fvSchemes;
}
// * * * * * * * * * * * * * * * * * * * * * * * * * * * * * * * * * * * * * //

ddtSchemes
{
    default         localEuler;
}

gradSchemes
{
    default         cellLimited leastSquares 1;
    //default         cellLimited Gauss linear 1;
}

defaultAdvScheme     vanAlbada;
defaultAdvSchemeV    vanAlbadaV;

//First Order
//defaultAdvScheme     upwind;
//defaultAdvSchemeV    upwind;

divSchemes
{
    default         none;

    //momentum equation
    div(phi_nei,U)	Gauss linearUpwind grad(U) $defaultAdvSchemeV;
    div(phi_own,U)	Gauss linearUpwind grad(U) $defaultAdvSchemeV;
    div(((rho*nuEff)*dev2(T(grad(U))))) Gauss linear;
    div(((rho*(thermo:mu|rho))*dev2(T(grad(U))))) Gauss linear;

    //energy equation
    div(phi_nei,h)	Gauss $defaultAdvScheme;
    div(phi_own,h)	Gauss $defaultAdvScheme;
    div(phi_nei,K)	Gauss $defaultAdvScheme;
    div(phi_own,K)	Gauss $defaultAdvScheme;

    //continuity equation
    div(phid_nei,p)	Gauss $defaultAdvScheme;
    div(phid_own,p)	Gauss $defaultAdvScheme;
    
    //turbulence
    div(phi,omega)      Gauss linearUpwind default; //upwind, linear;
    div(phi,k)          Gauss linearUpwind default; //upwind, linear;
    div(phi,epsilon)    Gauss linearUpwind default; //upwind, linear;
    div(phi,R)		Gauss upwind; //upwind, linear;
    div((rho*R))	Gauss upwind;
}

laplacianSchemes
{
    default         Gauss linear corrected;
    //default     Gauss linear limited 0.333;  //for non orthogonal meshes
}

defaultIntAdvScheme     vanAlbada;
defaultIntAdvSchemeV    vanAlbadaV;

interpolationSchemes
{
    default         linear;
	
    interpolate(rho)		linear;
    interpolate((rho*U))	linear;

    reconstruct(rho)		$defaultIntAdvScheme;
    reconstruct(psi)		$defaultIntAdvScheme;
    reconstruct(p)		$defaultIntAdvScheme;
    reconstruct(U)		$defaultIntAdvSchemeV;
    reconstruct(rho*U)		$defaultIntAdvSchemeV;
    reconstruct(Dp)	        $defaultIntAdvScheme;
}

snGradSchemes
{
    default         corrected;
    //default         limited 0.333;  //for non orthogonal meshes
}

fluxRequired
{
    default	none;
    p;
}

wallDist
{
    method    meshWave;
}

// ************************************************************************* //
