/*--------------------------------*- C++ -*----------------------------------*\
| =========                 |                                                 |
| \\      /  F ield         | OpenFOAM: The Open Source CFD Toolbox           |
|  \\    /   O peration     | Version:  2.3.0                                 |
|   \\  /    A nd           | Web:      www.OpenFOAM.org                      |
|    \\/     M anipulation  |                                                 |
\*---------------------------------------------------------------------------*/
FoamFile
{
    version     2.0;
    format      ascii;
    class       dictionary;
    location    "system";
    object      controlDict;
}
// * * * * * * * * * * * * * * * * * * * * * * * * * * * * * * * * * * * * * //

application     pimpleCentralFoam;

startFrom       startTime; //firstTime, startTime, latestTime

startTime       0;

stopAt          endTime; //writeNow, noWriteNow, nextWrite, endTime

//endTime		35000;		//run 1 kOmegaSST w. Pimple Corrector, to initialize R field	
//endTime	    150000;		//run 3 kOmegaSST w/o corrector, to bypass temp instability
//endTime	    12M;		//run 10 Fully converged kOmegaSST for R tensor BC's
//endTime	0.005;		//run 4 LRR transient initialization, no pimploe corr. and same maxCo. Same as previous kw.
				//run 5 same maxCo to encourage faster solution convergence w. higher rDeltaT table
				//run 10 Data collection run with averaging funcs and probes
//endTime	2000000;	//run 6	lower maxCo
				//run 7 lower maxCo; No flowrate movement between 1.5 to 1. Moving to 0.65 as a test to see if there's any movement. Hopefully the lower maxCo will initiate a movemment and won't take forever to stabilize because of the higherrDeltaT
				//run 8 same maxCo to let flowrates stabilize 
				//run 9 same maxCo to final solution with averaging functions
 
deltaT        	1;	//run 1-3 SST
//deltaT	1e-9;	//run 4+

writeControl    adjustableRunTime;

writeInterval	5000;	//run 1
//writeInterval	5000;	//run 2 & 3
//writeInterval	1e-7;	//run 4+

purgeWrite      10;

writeFormat     ascii;

writePrecision  8;

writeCompression off;

timeFormat      general;

timePrecision   20;

runTimeModifiable true;

adjustTimeStep  false;

CourantType     cellCourant;

maxCo		1.5;	//run 1-3  
//maxCo		1.5;	//run 4a-c attempts for transient LRR initialization
//maxCo		0.6;	//run 4d attempt with much lower maxCo and relaxation
//maxCo		0.35;	//run 4e even lower and more conservative MaxCo attempt
//maxCo		0.65;	//run 7 - 10

rDeltaTSmoothingCoeff table		//Option to add (3000 0.5), (4000, 0.75) for quicker convergence and solution stabilization
					// Reduced rDeltaT settings more conservaive in R10 for less error and better data collection
(
   (   0 0.001)
   ( 100 0.001)
   (1000 0.025)
   (2000 0.1)
);

rDeltaTDampingCoeff 	0.1;	//runs 1-4d
//rDeltaTDampingCoeff	0.075;	//run 4e

initialDeltaT   1e-7;

maxDeltaT	0.05; 	//run 1-3 SST
//maxDeltaT       1e-5;	//run 4+

CourantCalcMethod acousticCourant;

functions
{
  #includeFunc  residuals
  #includeFunc  jetInletFlow
  #includeFunc  farfieldATMFlow
  #includeFunc  outletFlow
  #includeFunc  inletFlow
  #includeFunc  Min
  #includeFunc  Max
  #includeFunc  MachNo
  #includeFunc  yPlus
  #includeFunc  tubeInlet_intB
  #includeFunc  tubeOutlet_intB
  #includeFunc  jetOutlet_intB
  #includeFunc  jetCore_intB
  #includeFunc  turbulenceFields
  #includeFunc  jetOutletFlow
  #includeFunc  tubeInletFlow
  #includeFunc  tubeOutletFlow
  #includeFunc	wallShearStress
  #includeFunc  zprobe1425a
  #includeFunc  zprobe1425b
  #includeFunc  zprobe1425c

  fieldAverage1
 {
    // Mandatory entries (unmodifiable)
    type            fieldAverage;
    libs            ("libfieldFunctionObjects.so");


    // Mandatory entries (runtime modifiable)
    fields
    (
        U
        {
            mean        on;
            prime2Mean  on;
            base        time;
        }
	
	T
        {
            mean        on;
            prime2Mean  on;
            base        time;
        }
	
	p
        {
            mean        on;
            prime2Mean  on;
            base        time;
        }

	rho
        {
            mean        on;
            prime2Mean  on;
            base        time;
        }

	k
        {
            mean        on;
            prime2Mean  on;
            base        time;
	}
	nut
        {
            mean        on;
            prime2Mean  on;
            base        time;
        }
    );

    // Optional entries (runtime modifiable)
    restartOnRestart    true;
    restartOnOutput     false;
    periodicRestart     false;	// Average over set number of iterations
    //restartPeriod     100000;	// Number of iterations to average over
    
    // Optional (inherited) entries
    enabled         true;
    log             true;
    executeControl  timeStep;
    executeInterval 1;
    writeControl    writeTime;
   
 };


}


// ************************************************************************* //
